Input Parameters:
   integrator                     = md
   tinit                          = 0
   dt                             = 0.002
   nsteps                         = 150000000
   init-step                      = 0
   simulation-part                = 1
   comm-mode                      = Linear
   nstcomm                        = 5000
   bd-fric                        = 0
   ld-seed                        = 2105683596
   emtol                          = 10
   emstep                         = 0.01
   niter                          = 20
   fcstep                         = 0
   nstcgsteep                     = 1000
   nbfgscorr                      = 10
   rtpi                           = 0.05
   nstxout                        = 0
   nstvout                        = 0
   nstfout                        = 0
   nstlog                         = 5000
   nstcalcenergy                  = 5000
   nstenergy                      = 5000
   nstxout-compressed             = 10000
   compressed-x-precision         = 1000
   cutoff-scheme                  = Verlet
   nstlist                        = 40
   ns-type                        = Grid
   pbc                            = xyz
   periodic-molecules             = FALSE
   verlet-buffer-tolerance        = 0.005
   rlist                          = 1.077
   rlistlong                      = 1.077
   nstcalclr                      = 25
   coulombtype                    = PME
   coulomb-modifier               = Potential-shift
   rcoulomb-switch                = 0
   rcoulomb                       = 1
   epsilon-r                      = 1
   epsilon-rf                     = inf
   vdw-type                       = Cut-off
   vdw-modifier                   = Potential-shift
   rvdw-switch                    = 0
   rvdw                           = 1
   DispCorr                       = EnerPres
   table-extension                = 1
   fourierspacing                 = 0.12
   fourier-nx                     = 56
   fourier-ny                     = 56
   fourier-nz                     = 80
   pme-order                      = 4
   ewald-rtol                     = 1e-05
   ewald-rtol-lj                  = 0.001
   lj-pme-comb-rule               = Geometric
   ewald-geometry                 = 0
   epsilon-surface                = 0
   implicit-solvent               = No
   gb-algorithm                   = Still
   nstgbradii                     = 1
   rgbradii                       = 1
   gb-epsilon-solvent             = 80
   gb-saltconc                    = 0
   gb-obc-alpha                   = 1
   gb-obc-beta                    = 0.8
   gb-obc-gamma                   = 4.85
   gb-dielectric-offset           = 0.009
   sa-algorithm                   = Ace-approximation
   sa-surface-tension             = 2.05016
   tcoupl                         = V-rescale
   nsttcouple                     = 25
   nh-chain-length                = 0
   print-nose-hoover-chain-variables = FALSE
   pcoupl                         = Parrinello-Rahman
   pcoupltype                     = Semiisotropic
   nstpcouple                     = 25
   tau-p                          = 10
   compressibility (3x3):
      compressibility[    0]={ 4.50000e-05,  0.00000e+00,  0.00000e+00}
      compressibility[    1]={ 0.00000e+00,  4.50000e-05,  0.00000e+00}
      compressibility[    2]={ 0.00000e+00,  0.00000e+00,  4.50000e-05}
   ref-p (3x3):
      ref-p[    0]={ 1.01300e+00,  0.00000e+00,  0.00000e+00}
      ref-p[    1]={ 0.00000e+00,  1.01300e+00,  0.00000e+00}
      ref-p[    2]={ 0.00000e+00,  0.00000e+00,  1.01300e+00}
   refcoord-scaling               = No
   posres-com (3):
      posres-com[0]= 0.00000e+00
      posres-com[1]= 0.00000e+00
      posres-com[2]= 0.00000e+00
   posres-comB (3):
      posres-comB[0]= 0.00000e+00
      posres-comB[1]= 0.00000e+00
      posres-comB[2]= 0.00000e+00
   QMMM                           = FALSE
   QMconstraints                  = 0
   QMMMscheme                     = 0
   MMChargeScaleFactor            = 1
qm-opts:
   ngQM                           = 0
   constraint-algorithm           = Lincs
   continuation                   = FALSE
   Shake-SOR                      = FALSE
   shake-tol                      = 0.0001
   lincs-order                    = 5
   lincs-iter                     = 1
   lincs-warnangle                = 30
   nwall                          = 0
   wall-type                      = 9-3
   wall-r-linpot                  = -1
   wall-atomtype[0]               = -1
   wall-atomtype[1]               = -1
   wall-density[0]                = 0
   wall-density[1]                = 0
   wall-ewald-zfac                = 3
   pull                           = FALSE
   rotation                       = FALSE
   interactiveMD                  = FALSE
   disre                          = No
   disre-weighting                = Conservative
   disre-mixed                    = FALSE
   dr-fc                          = 1000
   dr-tau                         = 0
   nstdisreout                    = 100
   orire-fc                       = 0
   orire-tau                      = 0
   nstorireout                    = 100
   free-energy                    = no
   cos-acceleration               = 0
   deform (3x3):
      deform[    0]={ 0.00000e+00,  0.00000e+00,  0.00000e+00}
      deform[    1]={ 0.00000e+00,  0.00000e+00,  0.00000e+00}
      deform[    2]={ 0.00000e+00,  0.00000e+00,  0.00000e+00}
   simulated-tempering            = FALSE
   E-x:
      n = 0
   E-xt:
      n = 0
   E-y:
      n = 0
   E-yt:
      n = 0
   E-z:
      n = 0
   E-zt:
      n = 0
   swapcoords                     = no
   adress                         = FALSE
   userint1                       = 0
   userint2                       = 0
   userint3                       = 0
   userint4                       = 0
   userreal1                      = 0
   userreal2                      = 0
   userreal3                      = 0
   userreal4                      = 0
grpopts:
   nrdf:     40958.5     38551.5
   ref-t:         313         313
   tau-t:           1           1
annealing:          No          No
annealing-npoints:           0           0
   acc:	           0           0           0
   nfreeze:           N           N           N
   energygrp-flags[  0]: 0 0
   energygrp-flags[  1]: 0 0

Reading checkpoint file state.cpt
  file generated by:     /storage/brno3-cerit/home/melcrj/prog/BIN/gromacs-5.1.2+plumed2_ownFFTW_noMPI_intel15_avx_256/bin/mdrun
  file generated at:     Sun Jul 30 19:45:34 2017

  GROMACS build time:    Tue May 10 11:29:33 CEST 2016
  GROMACS build user:    melcrj@perian.ncbr.muni.cz [CMAKE]
  GROMACS build host:    Linux 3.2.0-0.bpo.4-amd64 x86_64
  GROMACS double prec.:  0
  simulation part #:     11
  step:                  82594520
  time:                  165189.040000

Using 1 MPI thread
Using 8 OpenMP threads

1 compatible GPU is present, with ID 0
1 GPU auto-selected for this run.
Mapping of GPU ID to the 1 PP rank in this node: 0

Will do PME sum in reciprocal space for electrostatic interactions.

Will do ordinary reciprocal space Ewald sum.
Using a Gaussian width (1/beta) of 0.320163 nm for Ewald
Cut-off's:   NS: 1.077   Coulomb: 1   LJ: 1
Long Range LJ corr.: <C6> 3.1735e-04
System total charge: -0.000
Generated table with 1038 data points for Ewald.
Tabscale = 500 points/nm
Generated table with 1038 data points for LJ6.
Tabscale = 500 points/nm
Generated table with 1038 data points for LJ12.
Tabscale = 500 points/nm
Generated table with 1038 data points for 1-4 COUL.
Tabscale = 500 points/nm
Generated table with 1038 data points for 1-4 LJ6.
Tabscale = 500 points/nm
Generated table with 1038 data points for 1-4 LJ12.
Tabscale = 500 points/nm
Potential shift: LJ r^-12: -1.000e+00 r^-6: -1.000e+00, Ewald -1.000e-05
Initialized non-bonded Ewald correction tables, spacing: 9.33e-04 size: 1073

NOTE: GROMACS was configured without NVML support hence it can not exploit
      application clocks of the detected Tesla K20m GPU to improve performance.
      Recompile with the NVML library (compatible with the driver used) or set application clocks manually.

Using GPU 8x8 non-bonded kernels

NOTE: With GPUs, reporting energy group contributions is not supported

NOTE: The number of threads is not equal to the number of (logical) cores
      and the -pin option is set to auto: will not pin thread to cores.
      This can lead to significant performance degradation.
      Consider using -pin on (and -pinoffset in case you run multiple jobs).

Initializing LINear Constraint Solver

The number of constraints is 10496

Center of mass motion removal mode is Linear
We have the following groups for center of mass motion removal:
  0:  rest

There are: 36403 Atoms
There are: 6400 VSites
Initial temperature: 312.766 K

Started mdrun on rank 0 Sun Jul 30 19:46:13 2017
step 82594600: timed with pme grid 56 56 80, coulomb cutoff 1.000: 414.2 M-cycles
step 82594680: timed with pme grid 52 52 72, coulomb cutoff 1.028: 410.5 M-cycles
step 82594760: timed with pme grid 48 48 64, coulomb cutoff 1.114: 454.1 M-cycles
step 82594840: timed with pme grid 44 44 60, coulomb cutoff 1.215: 516.0 M-cycles
step 82594920: timed with pme grid 48 48 60, coulomb cutoff 1.172: 485.9 M-cycles
step 82595000: timed with pme grid 48 48 64, coulomb cutoff 1.114: 450.6 M-cycles
           Step           Time         Lambda
       82595000   165190.00000        0.00000

   Energies (kJ/mol)
           Bond          Angle    Proper Dih.  Improper Dih.          LJ-14
    8.93726e+03    3.70566e+04    2.20002e+04    3.84971e+02    4.63716e+03
     Coulomb-14        LJ (SR)  Disper. corr.   Coulomb (SR)   Coul. recip.
   -8.49911e+03    2.40763e+04   -6.99376e+03   -4.53047e+05    2.56887e+03
      Potential    Kinetic En.   Total Energy    Temperature Pres. DC (bar)
   -3.68878e+05    1.03991e+05   -2.64887e+05    3.14609e+02   -3.34151e+02
    1.21142e+01    3.50704e-06

	<====  A V E R A G E S  ====>

	Statistics over 7702681 steps using 1541 frames

   Energies (kJ/mol)
           Bond          Angle    Proper Dih.  Improper Dih.          LJ-14
    8.79041e+03    3.66962e+04    2.18218e+04    3.98546e+02    4.55241e+03
     Coulomb-14        LJ (SR)  Disper. corr.   Coulomb (SR)   Coul. recip.
   -8.65689e+03    2.44252e+04   -7.01192e+03   -4.54985e+05    3.60669e+03
      Potential    Kinetic En.   Total Energy    Temperature Pres. DC (bar)
   -3.70362e+05    1.03490e+05   -2.66872e+05    3.13092e+02   -3.35890e+02
 Pressure (bar)   Constr. rmsd
    3.24922e+00    0.00000e+00

          Box-X          Box-Y          Box-Z
    6.31511e+00    6.31511e+00    8.70304e+00

   Total Virial (kJ/mol)
    3.39541e+04    1.21554e+02    1.83347e-01
    1.21247e+02    3.39244e+04   -5.19571e+01
    1.48004e-01   -5.17744e+01    3.55151e+04

   Pressure (bar)
    7.06362e-01   -1.02453e+01    8.52078e-01
   -1.02159e+01    4.63054e+00    3.98294e+00
    8.55442e-01    3.96550e+00    4.41075e+00

  Epot (kJ/mol)        Coul-SR          LJ-SR        Coul-14          LJ-14
      POPC-POPC   -4.54985e+05    2.44252e+04   -8.65689e+03    4.55241e+03
POPC-Water_and_ions    0.00000e+00    0.00000e+00    0.00000e+00    0.00000e+00
Water_and_ions-Water_and_ions    0.00000e+00    0.00000e+00    0.00000e+00    0.00000e+00

         T-POPCT-Water_and_ions
    3.13414e+02    3.12750e+02
