Input Parameters:
   integrator                     = md
   tinit                          = 0
   dt                             = 0.002
   nsteps                         = 150000000
   init-step                      = 0
   simulation-part                = 1
   comm-mode                      = Linear
   nstcomm                        = 5000
   bd-fric                        = 0
   ld-seed                        = 2376872596
   emtol                          = 10
   emstep                         = 0.01
   niter                          = 20
   fcstep                         = 0
   nstcgsteep                     = 1000
   nbfgscorr                      = 10
   rtpi                           = 0.05
   nstxout                        = 0
   nstvout                        = 0
   nstfout                        = 0
   nstlog                         = 5000
   nstcalcenergy                  = 5000
   nstenergy                      = 5000
   nstxout-compressed             = 10000
   compressed-x-precision         = 1000
   cutoff-scheme                  = Verlet
   nstlist                        = 40
   ns-type                        = Grid
   pbc                            = xyz
   periodic-molecules             = FALSE
   verlet-buffer-tolerance        = 0.005
   rlist                          = 1.055
   rlistlong                      = 1.055
   nstcalclr                      = 25
   coulombtype                    = PME
   coulomb-modifier               = Potential-shift
   rcoulomb-switch                = 0
   rcoulomb                       = 1
   epsilon-r                      = 1
   epsilon-rf                     = inf
   vdw-type                       = Cut-off
   vdw-modifier                   = Potential-shift
   rvdw-switch                    = 0
   rvdw                           = 1
   DispCorr                       = EnerPres
   table-extension                = 1
   fourierspacing                 = 0.12
   fourier-nx                     = 56
   fourier-ny                     = 56
   fourier-nz                     = 80
   pme-order                      = 4
   ewald-rtol                     = 1e-05
   ewald-rtol-lj                  = 0.001
   lj-pme-comb-rule               = Geometric
   ewald-geometry                 = 0
   epsilon-surface                = 0
   implicit-solvent               = No
   gb-algorithm                   = Still
   nstgbradii                     = 1
   rgbradii                       = 1
   gb-epsilon-solvent             = 80
   gb-saltconc                    = 0
   gb-obc-alpha                   = 1
   gb-obc-beta                    = 0.8
   gb-obc-gamma                   = 4.85
   gb-dielectric-offset           = 0.009
   sa-algorithm                   = Ace-approximation
   sa-surface-tension             = 2.05016
   tcoupl                         = V-rescale
   nsttcouple                     = 25
   nh-chain-length                = 0
   print-nose-hoover-chain-variables = FALSE
   pcoupl                         = Parrinello-Rahman
   pcoupltype                     = Semiisotropic
   nstpcouple                     = 25
   tau-p                          = 10
   compressibility (3x3):
      compressibility[    0]={ 4.50000e-05,  0.00000e+00,  0.00000e+00}
      compressibility[    1]={ 0.00000e+00,  4.50000e-05,  0.00000e+00}
      compressibility[    2]={ 0.00000e+00,  0.00000e+00,  4.50000e-05}
   ref-p (3x3):
      ref-p[    0]={ 1.01300e+00,  0.00000e+00,  0.00000e+00}
      ref-p[    1]={ 0.00000e+00,  1.01300e+00,  0.00000e+00}
      ref-p[    2]={ 0.00000e+00,  0.00000e+00,  1.01300e+00}
   refcoord-scaling               = No
   posres-com (3):
      posres-com[0]= 0.00000e+00
      posres-com[1]= 0.00000e+00
      posres-com[2]= 0.00000e+00
   posres-comB (3):
      posres-comB[0]= 0.00000e+00
      posres-comB[1]= 0.00000e+00
      posres-comB[2]= 0.00000e+00
   QMMM                           = FALSE
   QMconstraints                  = 0
   QMMMscheme                     = 0
   MMChargeScaleFactor            = 1
qm-opts:
   ngQM                           = 0
   constraint-algorithm           = Lincs
   continuation                   = FALSE
   Shake-SOR                      = FALSE
   shake-tol                      = 0.0001
   lincs-order                    = 5
   lincs-iter                     = 1
   lincs-warnangle                = 30
   nwall                          = 0
   wall-type                      = 9-3
   wall-r-linpot                  = -1
   wall-atomtype[0]               = -1
   wall-atomtype[1]               = -1
   wall-density[0]                = 0
   wall-density[1]                = 0
   wall-ewald-zfac                = 3
   pull                           = FALSE
   rotation                       = FALSE
   interactiveMD                  = FALSE
   disre                          = No
   disre-weighting                = Conservative
   disre-mixed                    = FALSE
   dr-fc                          = 1000
   dr-tau                         = 0
   nstdisreout                    = 100
   orire-fc                       = 0
   orire-tau                      = 0
   nstorireout                    = 100
   free-energy                    = no
   cos-acceleration               = 0
   deform (3x3):
      deform[    0]={ 0.00000e+00,  0.00000e+00,  0.00000e+00}
      deform[    1]={ 0.00000e+00,  0.00000e+00,  0.00000e+00}
      deform[    2]={ 0.00000e+00,  0.00000e+00,  0.00000e+00}
   simulated-tempering            = FALSE
   E-x:
      n = 0
   E-xt:
      n = 0
   E-y:
      n = 0
   E-yt:
      n = 0
   E-z:
      n = 0
   E-zt:
      n = 0
   swapcoords                     = no
   adress                         = FALSE
   userint1                       = 0
   userint2                       = 0
   userint3                       = 0
   userint4                       = 0
   userreal1                      = 0
   userreal2                      = 0
   userreal3                      = 0
   userreal4                      = 0
grpopts:
   nrdf:     40958.5     38551.5
   ref-t:         313         313
   tau-t:           1           1
annealing:          No          No
annealing-npoints:           0           0
   acc:	           0           0           0
   nfreeze:           N           N           N
   energygrp-flags[  0]: 0 0
   energygrp-flags[  1]: 0 0

Reading checkpoint file state.cpt
  file generated by:     /storage/brno3-cerit/home/melcrj/prog/BIN/gromacs-5.1.2+plumed2_ownFFTW_noMPI_intel15_avx_256/bin/mdrun
  file generated at:     Tue Aug  1 12:13:18 2017

  GROMACS build time:    Tue May 10 11:29:33 CEST 2016
  GROMACS build user:    melcrj@perian.ncbr.muni.cz [CMAKE]
  GROMACS build host:    Linux 3.2.0-0.bpo.4-amd64 x86_64
  GROMACS double prec.:  0
  simulation part #:     15
  step:                  146750920
  time:                  293501.840000

Using 1 MPI thread
Using 8 OpenMP threads

1 compatible GPU is present, with ID 0
1 GPU auto-selected for this run.
Mapping of GPU ID to the 1 PP rank in this node: 0

Will do PME sum in reciprocal space for electrostatic interactions.

Will do ordinary reciprocal space Ewald sum.
Using a Gaussian width (1/beta) of 0.320163 nm for Ewald
Cut-off's:   NS: 1.055   Coulomb: 1   LJ: 1
Long Range LJ corr.: <C6> 3.8853e-04
System total charge: -0.000
Generated table with 1027 data points for Ewald.
Tabscale = 500 points/nm
Generated table with 1027 data points for LJ6.
Tabscale = 500 points/nm
Generated table with 1027 data points for LJ12.
Tabscale = 500 points/nm
Generated table with 1027 data points for 1-4 COUL.
Tabscale = 500 points/nm
Generated table with 1027 data points for 1-4 LJ6.
Tabscale = 500 points/nm
Generated table with 1027 data points for 1-4 LJ12.
Tabscale = 500 points/nm
Potential shift: LJ r^-12: -1.000e+00 r^-6: -1.000e+00, Ewald -1.000e-05
Initialized non-bonded Ewald correction tables, spacing: 9.33e-04 size: 1073

NOTE: GROMACS was configured without NVML support hence it can not exploit
      application clocks of the detected Tesla K20m GPU to improve performance.
      Recompile with the NVML library (compatible with the driver used) or set application clocks manually.

Using GPU 8x8 non-bonded kernels

NOTE: With GPUs, reporting energy group contributions is not supported

NOTE: The number of threads is not equal to the number of (logical) cores
      and the -pin option is set to auto: will not pin thread to cores.
      This can lead to significant performance degradation.
      Consider using -pin on (and -pinoffset in case you run multiple jobs).

Initializing LINear Constraint Solver

The number of constraints is 10496

Center of mass motion removal mode is Linear
We have the following groups for center of mass motion removal:
  0:  rest

There are: 36403 Atoms
Initial temperature: 312.859 K

Started mdrun on rank 0 Tue Aug  1 12:15:46 2017
step 146751000: timed with pme grid 56 56 80, coulomb cutoff 1.000: 380.1 M-cycles
step 146751080: timed with pme grid 52 52 64, coulomb cutoff 1.081: 364.2 M-cycles
step 146751160: timed with pme grid 48 48 60, coulomb cutoff 1.153: 368.4 M-cycles
step 146751240: timed with pme grid 44 44 56, coulomb cutoff 1.235: 402.8 M-cycles
step 146751320: timed with pme grid 40 40 52, coulomb cutoff 1.350: 458.0 M-cycles
step 146751400: timed with pme grid 42 42 52, coulomb cutoff 1.330: 446.7 M-cycles
step 146751480: timed with pme grid 42 42 56, coulomb cutoff 1.286: 426.5 M-cycles
step 146751560: timed with pme grid 44 44 56, coulomb cutoff 1.235: 402.1 M-cycles
step 146751640: timed with pme grid 48 48 60, coulomb cutoff 1.153: 364.5 M-cycles
step 146751720: timed with pme grid 48 48 64, coulomb cutoff 1.125: 348.9 M-cycles
step 146751800: timed with pme grid 52 52 64, coulomb cutoff 1.081: 365.4 M-cycles
step 146751880: timed with pme grid 52 52 72, coulomb cutoff 1.039: 370.8 M-cycles
step 146751960: timed with pme grid 56 56 80, coulomb cutoff 1.000: 376.0 M-cycles
              optimal pme grid 48 48 64, coulomb cutoff 1.125
           Step           Time         Lambda
      146755000   293510.00000        0.00000

   Energies (kJ/mol)
           Bond          Angle    Proper Dih.  Improper Dih.          LJ-14
    8.72187e+03    3.64479e+04    2.18458e+04    4.10292e+02    4.62606e+03
     Coulomb-14        LJ (SR)  Disper. corr.   Coulomb (SR)   Coul. recip.
   -8.62919e+03    3.43253e+04   -6.19991e+03   -4.50565e+05    2.39393e+03
      Potential    Kinetic En.   Total Energy    Temperature Pres. DC (bar)
   -3.56623e+05    1.03732e+05   -2.52891e+05    3.13825e+02   -2.96639e+02
   -2.28757e+02    3.47106e-06

	<====  A V E R A G E S  ====>

	Statistics over 3249081 steps using 650 frames

   Energies (kJ/mol)
           Bond          Angle    Proper Dih.  Improper Dih.          LJ-14
    8.79377e+03    3.66415e+04    2.18943e+04    3.96644e+02    4.53860e+03
     Coulomb-14        LJ (SR)  Disper. corr.   Coulomb (SR)   Coul. recip.
   -8.61492e+03    3.51660e+04   -6.19852e+03   -4.50838e+05    2.34475e+03
      Potential    Kinetic En.   Total Energy    Temperature Pres. DC (bar)
   -3.55876e+05    1.03522e+05   -2.52354e+05    3.13188e+02   -2.96508e+02
 Pressure (bar)   Constr. rmsd
   -1.34465e+01    0.00000e+00

          Box-X          Box-Y          Box-Z
    6.33552e+00    6.33552e+00    8.66134e+00

   Total Virial (kJ/mol)
    3.41536e+04    5.80073e+01   -2.62790e+02
    5.85506e+01    3.41705e+04    1.31285e+02
   -2.62264e+02    1.31064e+02    3.56244e+04

   Pressure (bar)
   -1.68110e+01   -6.01124e+00    1.49045e+01
   -6.06310e+00   -1.84314e+01   -1.60962e+01
    1.48541e+01   -1.60751e+01   -5.09699e+00

  Epot (kJ/mol)        Coul-SR          LJ-SR        Coul-14          LJ-14
      POPC-POPC   -4.50838e+05    3.51660e+04   -8.61492e+03    4.53860e+03
POPC-Water_and_ions    0.00000e+00    0.00000e+00    0.00000e+00    0.00000e+00
Water_and_ions-Water_and_ions    0.00000e+00    0.00000e+00    0.00000e+00    0.00000e+00

         T-POPCT-Water_and_ions
    3.13475e+02    3.12883e+02
